xflr5 v6.61

VTOL_v6
Constant V=12.8 m/s vs AOA
QInf  =   12.800000 m/s
Alpha =    9.000000
Beta  =    0.000°
Phi   =    0.000°
Ctrl  =    0.000
CL    =    1.151814
Cy    =   -0.000000
Cd    =    0.107277     ICd   =    0.088376     PCd   =    0.018901
Cl   = -3.28399e-07
Cm   =    0.033663
ICn   =    0.000000     PCn   =    0.000000 
XCP   =   -0.007818     YCP   =    0.000000     ZCP   =    0.013391  
XNP   =    0.000000
Bending =    0.000000

Main Wing
  y-span        Chord      Ai         Cl        PCd          ICd        CmGeom    CmAirf@chord/4    XTrtop    XTrBot      XCP       BM
   -0.8150     0.0800    -0.828    0.523420    0.036200    0.004340    0.115810   -0.048725     0.7738    0.7244    0.3939    0.0000
   -0.8050     0.0900    -0.996    0.695661    0.030721    0.006665    0.121063   -0.070820     0.7388    1.0000    0.4076    0.0004
   -0.7975     0.0975    -0.675    0.758744    0.027676    0.000600    0.117391   -0.076658     0.7193    1.0000    0.3980    0.0013
   -0.7925     0.1025    -0.954    0.795049    0.025516    0.002377    0.111859   -0.081339     0.7163    1.0000    0.3952    0.0020
   -0.7875     0.1075    -1.287    0.827163    0.024877    0.005374    0.109712   -0.087401     0.7050    1.0000    0.3932    0.0030
   -0.7825     0.1125    -1.813    0.823468    0.022499    0.008886    0.103485   -0.086044     0.7099    1.0000    0.3850    0.0041
   -0.7775     0.1175    -2.267    0.835069    0.020891    0.011529    0.104097   -0.087475     0.7054    1.0000    0.3766    0.0055
   -0.7725     0.1225    -2.970    0.777049    0.019659    0.011874    0.100663   -0.078808     0.7191    1.0000    0.3608    0.0071
   -0.7675     0.1275    -3.474    0.763825    0.018941    0.009130    0.107447   -0.075911     0.7207    1.0000    0.3481    0.0088
   -0.7625     0.1325    -4.128    0.671477    0.018246    0.002777    0.108790   -0.060220     0.7479    0.8203    0.3242    0.0106
   -0.7588     0.1362    -3.479    0.318558    0.025904   -0.089280    0.119593   -0.050174     0.8342    0.1233    0.3094    0.0120
   -0.7562     0.1387    -1.195    0.687301    0.017134   -0.062209    0.109645   -0.065940     0.7431    0.9072    0.3269    0.0128
   -0.7538     0.1412    -0.288    0.625946    0.018549   -0.095344    0.091619   -0.092986     0.7627    0.3528    0.3545    0.0137
   -0.7512     0.1437     3.623   -0.144423    0.080928   -0.331860    0.078661   -0.113575     0.9236    0.0976    0.3734    0.0146
   -0.7161     0.1492    -3.923    1.032259    0.018423    0.065996    0.109628   -0.120339     0.6359    1.0000    0.3579    0.0258
   -0.6483     0.1575    -3.524    1.190839    0.019763    0.072527    0.099640   -0.131875     0.5940    1.0000    0.3538    0.1201
   -0.5806     0.1658    -3.418    1.268214    0.020561    0.075704    0.083287   -0.133992     0.5697    1.0000    0.3490    0.3031
   -0.5128     0.1742    -3.492    1.306434    0.020365    0.079965    0.063229   -0.133533     0.5576    1.0000    0.3457    0.5857
   -0.4450     0.1825    -3.700    1.316670    0.019796    0.085553    0.041979   -0.131492     0.5510    1.0000    0.3436    0.9760
   -0.3772     0.1908    -4.033    1.301531    0.019000    0.092272    0.021140   -0.127826     0.5509    1.0000    0.3423    1.4800
   -0.3094     0.1992    -4.503    1.258005    0.017869    0.099645    0.002002   -0.121904     0.5587    1.0000    0.3414    2.1015
   -0.2417     0.2075    -5.147    1.176452    0.016416    0.106571   -0.013893   -0.112300     0.5730    1.0000    0.3408    2.8414
   -0.1739     0.2158    -6.052    1.036725    0.014465    0.110549   -0.024078   -0.096173     0.6026    1.0000    0.3396    3.6968
   -0.1370     0.2215    -6.717    0.941197    0.013317    0.112448   -0.038456   -0.095380     0.6257    1.0000    0.3516    4.2199
   -0.1310     0.2245    -7.632    0.875696    0.012614    0.118100   -0.026792   -0.077209     0.6432    1.0000    0.3381    4.3059
   -0.1250     0.2275    -8.115    0.820665    0.012106    0.117593   -0.019376   -0.064067     0.6612    1.0000    0.3281    4.3927
   -0.1190     0.2305    -8.562    0.766535    0.011661    0.115871   -0.012968   -0.052332     0.6789    1.0000    0.3185    4.4801
   -0.1130     0.2335    -9.022    0.710480    0.011612    0.113176   -0.006205   -0.040477     0.6963    0.7658    0.3073    4.5682
   -0.1070     0.2365    -9.531    0.650469    0.012936    0.109492    0.001918   -0.027388     0.7227    0.2889    0.2923    4.6569
   -0.1010     0.2395   -10.127    0.584175    0.013258    0.104538    0.013070   -0.011201     0.7480    0.2100    0.2682    4.7462
   -0.0950     0.2425   -10.891    0.508140    0.013811    0.097864    0.031101    0.012219     0.7757    0.1515    0.2186    4.8360
   -0.0890     0.2455   -12.108    0.415986    0.014808    0.089200    0.069789    0.057511     0.8069    0.1078    0.0524    4.9263
   -0.0830     0.2485   -16.998    0.292536    0.017020    0.088873    0.146604    0.142999     0.8419    0.0755   -1.3575    5.0169
    0.0830     0.2485   -16.998    0.292536    0.017020    0.088873    0.146604    0.142999     0.8419    0.0755   -1.3575    5.0169
    0.0890     0.2455   -12.108    0.415986    0.014808    0.089200    0.069789    0.057511     0.8069    0.1078    0.0524    4.9263
    0.0950     0.2425   -10.891    0.508140    0.013811    0.097864    0.031101    0.012219     0.7757    0.1515    0.2186    4.8360
    0.1010     0.2395   -10.127    0.584175    0.013258    0.104538    0.013070   -0.011201     0.7480    0.2100    0.2682    4.7462
    0.1070     0.2365    -9.531    0.650469    0.012936    0.109492    0.001918   -0.027388     0.7227    0.2889    0.2923    4.6569
    0.1130     0.2335    -9.022    0.710480    0.011612    0.113176   -0.006205   -0.040477     0.6963    0.7658    0.3073    4.5682
    0.1190     0.2305    -8.562    0.766535    0.011661    0.115871   -0.012968   -0.052332     0.6789    1.0000    0.3185    4.4801
    0.1250     0.2275    -8.115    0.820665    0.012106    0.117593   -0.019376   -0.064067     0.6612    1.0000    0.3281    4.3927
    0.1310     0.2245    -7.632    0.875696    0.012614    0.118100   -0.026792   -0.077209     0.6432    1.0000    0.3381    4.3059
    0.1370     0.2215    -6.717    0.941197    0.013317    0.112448   -0.038456   -0.095380     0.6257    1.0000    0.3516    4.2199
    0.1739     0.2158    -6.052    1.036725    0.014465    0.110549   -0.024078   -0.096173     0.6026    1.0000    0.3396    3.6968
    0.2417     0.2075    -5.147    1.176452    0.016416    0.106571   -0.013893   -0.112300     0.5730    1.0000    0.3408    2.8415
    0.3094     0.1992    -4.503    1.258005    0.017869    0.099645    0.002002   -0.121904     0.5587    1.0000    0.3414    2.1015
    0.3772     0.1908    -4.033    1.301531    0.019000    0.092272    0.021140   -0.127826     0.5509    1.0000    0.3423    1.4800
    0.4450     0.1825    -3.700    1.316670    0.019796    0.085553    0.041979   -0.131492     0.5510    1.0000    0.3436    0.9760
    0.5128     0.1742    -3.492    1.306435    0.020365    0.079965    0.063229   -0.133533     0.5576    1.0000    0.3457    0.5857
    0.5806     0.1658    -3.418    1.268214    0.020561    0.075704    0.083287   -0.133992     0.5697    1.0000    0.3490    0.3031
    0.6483     0.1575    -3.524    1.190839    0.019763    0.072527    0.099640   -0.131875     0.5940    1.0000    0.3538    0.1201
    0.7161     0.1492    -3.923    1.032260    0.018423    0.065996    0.109627   -0.120340     0.6359    1.0000    0.3579    0.0258
    0.7512     0.1437     3.625   -0.144426    0.080928   -0.331902    0.078617   -0.113647     0.9236    0.0976    0.3735    0.0146
    0.7538     0.1412    -0.289    0.625945    0.018549   -0.095342    0.091593   -0.093031     0.7627    0.3528    0.3545    0.0137
    0.7562     0.1387    -1.195    0.687300    0.017134   -0.062209    0.109628   -0.065966     0.7431    0.9072    0.3270    0.0128
    0.7588     0.1362    -3.480    0.318559    0.025904   -0.089263    0.119587   -0.050185     0.8342    0.1233    0.3094    0.0120
    0.7625     0.1325    -4.128    0.671476    0.018246    0.002771    0.108792   -0.060217     0.7479    0.8203    0.3242    0.0106
    0.7675     0.1275    -3.473    0.763824    0.018941    0.009116    0.107439   -0.075923     0.7207    1.0000    0.3482    0.0088
    0.7725     0.1225    -2.971    0.777056    0.019659    0.011899    0.100658   -0.078818     0.7191    1.0000    0.3608    0.0071
    0.7775     0.1175    -2.267    0.835072    0.020891    0.011524    0.104091   -0.087487     0.7054    1.0000    0.3766    0.0055
    0.7825     0.1125    -1.813    0.823473    0.022499    0.008891    0.103484   -0.086052     0.7099    1.0000    0.3850    0.0041
    0.7875     0.1075    -1.287    0.827167    0.024877    0.005374    0.109710   -0.087409     0.7050    1.0000    0.3932    0.0030
    0.7925     0.1025    -0.954    0.795052    0.025516    0.002378    0.111860   -0.081344     0.7163    1.0000    0.3952    0.0020
    0.7975     0.0975    -0.675    0.758747    0.027676    0.000601    0.117391   -0.076661     0.7193    1.0000    0.3980    0.0013
    0.8050     0.0900    -0.996    0.695663    0.030721    0.006666    0.121064   -0.070823     0.7388    1.0000    0.4076    0.0004
    0.8150     0.0800    -0.828    0.523421    0.036200    0.004340    0.115810   -0.048725     0.7738    0.7244    0.3939    0.0000


Main Wing Cp Coefficients
 Panel     CtrlPt.x        CtrlPt.y        CtrlPt.z       Nx      Ny       Nz        Area       Cp
Main WingCp Coefficients
Strip 1
  13       1.023e-02      -7.935e-01       4.529e-02          -0.016          -0.793          -0.610       6.135e-05         -0.3475
  14       4.089e-03      -7.936e-01       4.556e-02          -0.019          -0.791          -0.611       6.136e-05         -0.2345
  15      -2.051e-03      -7.937e-01       4.580e-02          -0.003          -0.799          -0.602       6.137e-05         -0.1918
  16      -8.195e-03      -7.939e-01       4.599e-02           0.013          -0.805          -0.592       6.141e-05         -0.2101
  17      -1.434e-02      -7.941e-01       4.613e-02           0.028          -0.811          -0.585       6.147e-05         -0.2173
  18      -2.049e-02      -7.945e-01       4.621e-02           0.041          -0.815          -0.578       6.155e-05         -0.2102
  19      -2.664e-02      -7.949e-01       4.626e-02           0.052          -0.817          -0.574       6.162e-05         -0.1938
  20      -3.280e-02      -7.953e-01       4.627e-02           0.059          -0.819          -0.571       6.169e-05         -0.1649
  21      -3.895e-02      -7.958e-01       4.622e-02           0.081          -0.822          -0.564       6.186e-05         -0.1431
  22      -4.511e-02      -7.964e-01       4.609e-02           0.105          -0.823          -0.558       6.209e-05         -0.1556
  23      -5.128e-02      -7.971e-01       4.591e-02           0.113          -0.824          -0.556       6.220e-05         -0.2122
  24      -5.744e-02      -7.977e-01       4.576e-02           0.087          -0.824          -0.560       6.201e-05         -0.3595
  25      -6.356e-02      -7.974e-01       4.628e-02          -0.251          -0.794          -0.553       6.311e-05         -0.0979
  26      -6.346e-02      -7.947e-01       4.829e-02          -0.635           0.613           0.470       8.159e-05         -0.1820
  27      -5.720e-02      -7.915e-01       5.032e-02          -0.353           0.733           0.581       6.631e-05         -0.8281
  28      -5.100e-02      -7.898e-01       5.125e-02          -0.231           0.753           0.617       6.344e-05         -0.8668
  29      -4.482e-02      -7.887e-01       5.172e-02          -0.130           0.754           0.644       6.207e-05         -0.8463
  30      -3.866e-02      -7.881e-01       5.184e-02          -0.039           0.744           0.667       6.151e-05         -0.7690
  31      -3.251e-02      -7.880e-01       5.166e-02           0.034           0.727           0.686       6.152e-05         -0.6515
  32      -2.638e-02      -7.881e-01       5.126e-02           0.080           0.712           0.698       6.175e-05         -0.5510
  33      -2.026e-02      -7.884e-01       5.070e-02           0.121           0.695           0.709       6.214e-05         -0.4796
  34      -1.414e-02      -7.889e-01       5.000e-02           0.158           0.676           0.720       6.264e-05         -0.4276
  35      -8.029e-03      -7.896e-01       4.917e-02           0.192           0.655           0.731       6.328e-05         -0.3953
  36      -1.926e-03      -7.905e-01       4.820e-02           0.226           0.631           0.742       6.409e-05         -0.3815
  37       4.170e-03      -7.915e-01       4.710e-02           0.258           0.606           0.753       6.503e-05         -0.3871
  38       1.026e-02      -7.928e-01       4.584e-02           0.303           0.564           0.768       6.673e-05         -0.3822
Strip 2
  39       1.941e-02      -7.873e-01       3.697e-02          -0.016          -0.793          -0.610       6.903e-05         -0.1722
  40       1.250e-02      -7.874e-01       3.727e-02          -0.019          -0.791          -0.611       6.903e-05         -0.0900
  41       5.596e-03      -7.875e-01       3.755e-02          -0.003          -0.799          -0.602       6.905e-05         -0.0683
  42      -1.316e-03      -7.877e-01       3.776e-02           0.013          -0.805          -0.592       6.910e-05         -0.0791
  43      -8.231e-03      -7.880e-01       3.791e-02           0.028          -0.811          -0.585       6.917e-05         -0.0872
  44      -1.515e-02      -7.884e-01       3.801e-02           0.041          -0.815          -0.578       6.926e-05         -0.0896
  45      -2.207e-02      -7.888e-01       3.805e-02           0.052          -0.817          -0.574       6.934e-05         -0.0856
  46      -2.899e-02      -7.893e-01       3.806e-02           0.059          -0.819          -0.571       6.942e-05         -0.0696
  47      -3.592e-02      -7.898e-01       3.801e-02           0.081          -0.822          -0.564       6.961e-05         -0.0589
  48      -4.285e-02      -7.905e-01       3.786e-02           0.105          -0.823          -0.558       6.987e-05         -0.0813
  49      -4.978e-02      -7.913e-01       3.765e-02           0.113          -0.824          -0.556       6.998e-05         -0.1479
  50      -5.672e-02      -7.920e-01       3.747e-02           0.087          -0.824          -0.560       6.977e-05         -0.2953
  51      -6.361e-02      -7.917e-01       3.806e-02          -0.251          -0.794          -0.553       7.099e-05         -0.0243
  52      -6.349e-02      -7.886e-01       4.034e-02          -0.635           0.613           0.470       9.180e-05         -0.2470
  53      -5.644e-02      -7.851e-01       4.264e-02          -0.353           0.733           0.581       7.462e-05         -0.9789
  54      -4.947e-02      -7.832e-01       4.370e-02          -0.231           0.753           0.617       7.139e-05         -1.0788
  55      -4.251e-02      -7.819e-01       4.424e-02          -0.130           0.754           0.644       6.985e-05         -1.0850
  56      -3.558e-02      -7.813e-01       4.437e-02          -0.039           0.744           0.667       6.921e-05         -1.0074
  57      -2.867e-02      -7.811e-01       4.417e-02           0.034           0.727           0.686       6.921e-05         -0.8675
  58      -2.177e-02      -7.812e-01       4.372e-02           0.080           0.712           0.698       6.946e-05         -0.7367
  59      -1.488e-02      -7.815e-01       4.310e-02           0.121           0.695           0.709       6.989e-05         -0.6322
  60      -8.001e-03      -7.821e-01       4.230e-02           0.158           0.676           0.720       7.044e-05         -0.5408
  61      -1.127e-03      -7.829e-01       4.136e-02           0.192           0.655           0.731       7.115e-05         -0.4606
  62       5.739e-03      -7.839e-01       4.026e-02           0.226           0.631           0.742       7.204e-05         -0.3846
  63       1.260e-02      -7.851e-01       3.902e-02           0.258           0.606           0.753       7.309e-05         -0.3100
  64       1.944e-02      -7.865e-01       3.759e-02           0.303           0.564           0.768       7.498e-05         -0.2234
Strip 3
  65       2.630e-02      -7.827e-01       3.079e-02          -0.017          -0.778          -0.627       3.697e-05         -0.0796
  66       1.882e-02      -7.827e-01       3.112e-02          -0.020          -0.777          -0.629       3.699e-05         -0.0852
  67       1.134e-02      -7.829e-01       3.141e-02          -0.004          -0.785          -0.620       3.701e-05         -0.0818
  68       3.847e-03      -7.831e-01       3.164e-02           0.012          -0.792          -0.611       3.706e-05         -0.0646
  69      -3.645e-03      -7.834e-01       3.180e-02           0.027          -0.797          -0.603       3.714e-05         -0.0528
  70      -1.114e-02      -7.838e-01       3.190e-02           0.040          -0.802          -0.597       3.724e-05         -0.0459
  71      -1.864e-02      -7.842e-01       3.194e-02           0.051          -0.804          -0.592       3.735e-05         -0.0397
  72      -2.614e-02      -7.847e-01       3.195e-02           0.058          -0.806          -0.589       3.746e-05         -0.0247
  73      -3.364e-02      -7.853e-01       3.188e-02           0.080          -0.809          -0.582       3.765e-05         -0.0159
  74      -4.115e-02      -7.861e-01       3.172e-02           0.104          -0.811          -0.576       3.789e-05         -0.0391
  75      -4.866e-02      -7.869e-01       3.148e-02           0.112          -0.811          -0.575       3.807e-05         -0.1044
  76      -5.617e-02      -7.877e-01       3.128e-02           0.086          -0.811          -0.579       3.806e-05         -0.2462
  77      -6.364e-02      -7.873e-01       3.192e-02          -0.252          -0.781          -0.571       3.869e-05          0.0363
  78      -6.351e-02      -7.841e-01       3.442e-02          -0.634           0.603           0.484       4.942e-05         -0.3018
  79      -5.587e-02      -7.802e-01       3.696e-02          -0.353           0.720           0.598       3.959e-05         -1.0606
  80      -4.831e-02      -7.782e-01       3.813e-02          -0.230           0.738           0.635       3.759e-05         -1.1872
  81      -4.078e-02      -7.769e-01       3.873e-02          -0.129           0.738           0.662       3.660e-05         -1.2073
  82      -3.327e-02      -7.762e-01       3.889e-02          -0.038           0.726           0.687       3.618e-05         -1.1284
  83      -2.578e-02      -7.759e-01       3.867e-02           0.035           0.708           0.705       3.617e-05         -0.9763
  84      -1.831e-02      -7.761e-01       3.818e-02           0.081           0.692           0.717       3.633e-05         -0.8286
  85      -1.085e-02      -7.764e-01       3.750e-02           0.122           0.674           0.729       3.663e-05         -0.7046
  86      -3.392e-03      -7.771e-01       3.663e-02           0.159           0.655           0.739       3.703e-05         -0.5910
  87       4.054e-03      -7.779e-01       3.560e-02           0.193           0.634           0.749       3.754e-05         -0.4844
  88       1.149e-02      -7.789e-01       3.440e-02           0.227           0.610           0.759       3.818e-05         -0.3787
  89       1.892e-02      -7.802e-01       3.304e-02           0.258           0.585           0.769       3.893e-05         -0.2726
  90       2.634e-02      -7.818e-01       3.147e-02           0.303           0.543           0.783       4.019e-05         -0.1669
Strip 4
  91       3.090e-02      -7.795e-01       2.675e-02          -0.017          -0.778          -0.627       3.888e-05         -0.1124
  92       2.303e-02      -7.796e-01       2.709e-02          -0.020          -0.777          -0.629       3.889e-05         -0.0898
  93       1.516e-02      -7.797e-01       2.740e-02          -0.004          -0.785          -0.620       3.892e-05         -0.0640
  94       7.293e-03      -7.799e-01       2.764e-02           0.012          -0.792          -0.611       3.898e-05         -0.0427
  95      -5.834e-04      -7.803e-01       2.780e-02           0.027          -0.797          -0.603       3.907e-05         -0.0307
  96      -8.463e-03      -7.807e-01       2.789e-02           0.040          -0.802          -0.597       3.918e-05         -0.0245
  97      -1.635e-02      -7.811e-01       2.793e-02           0.051          -0.804          -0.592       3.929e-05         -0.0190
  98      -2.423e-02      -7.817e-01       2.793e-02           0.058          -0.806          -0.589       3.940e-05         -0.0047
  99      -3.212e-02      -7.823e-01       2.785e-02           0.080          -0.809          -0.582       3.960e-05          0.0040
 100      -4.001e-02      -7.830e-01       2.766e-02           0.104          -0.811          -0.576       3.985e-05         -0.0180
 101      -4.791e-02      -7.839e-01       2.739e-02           0.112          -0.811          -0.575       4.004e-05         -0.0806
 102      -5.581e-02      -7.847e-01       2.717e-02           0.086          -0.811          -0.579       4.002e-05         -0.2182
 103      -6.366e-02      -7.844e-01       2.785e-02          -0.252          -0.781          -0.571       4.067e-05          0.0648
 104      -6.352e-02      -7.810e-01       3.054e-02          -0.634           0.603           0.484       5.198e-05         -0.3308
 105      -5.549e-02      -7.770e-01       3.327e-02          -0.353           0.720           0.598       4.166e-05         -1.1020
 106      -4.754e-02      -7.748e-01       3.454e-02          -0.230           0.738           0.634       3.955e-05         -1.2464
 107      -3.962e-02      -7.735e-01       3.520e-02          -0.129           0.738           0.662       3.851e-05         -1.2750
 108      -3.173e-02      -7.727e-01       3.537e-02          -0.038           0.726           0.687       3.806e-05         -1.1967
 109      -2.385e-02      -7.725e-01       3.514e-02           0.035           0.708           0.705       3.803e-05         -1.0381
 110      -1.599e-02      -7.726e-01       3.463e-02           0.081           0.692           0.717       3.818e-05         -0.8806
 111      -8.148e-03      -7.730e-01       3.390e-02           0.122           0.674           0.729       3.848e-05         -0.7459
 112      -3.118e-04      -7.737e-01       3.298e-02           0.159           0.655           0.739       3.888e-05         -0.6213
 113       7.515e-03      -7.746e-01       3.188e-02           0.193           0.633           0.749       3.939e-05         -0.5045
 114       1.533e-02      -7.757e-01       3.061e-02           0.227           0.609           0.760       4.004e-05         -0.3906
 115       2.314e-02      -7.770e-01       2.915e-02           0.259           0.584           0.769       4.081e-05         -0.2815
 116       3.094e-02      -7.786e-01       2.748e-02           0.304           0.542           0.783       4.209e-05         -0.1783
Strip 5
 117       3.550e-02      -7.763e-01       2.280e-02          -0.019          -0.750          -0.661       4.014e-05         -0.0915
 118       2.725e-02      -7.764e-01       2.316e-02          -0.021          -0.749          -0.662       4.017e-05         -0.0629
 119       1.900e-02      -7.765e-01       2.348e-02          -0.006          -0.757          -0.653       4.022e-05         -0.0383
 120       1.074e-02      -7.767e-01       2.372e-02           0.010          -0.765          -0.644       4.032e-05         -0.0188
 121       2.482e-03      -7.771e-01       2.389e-02           0.025          -0.771          -0.637       4.047e-05         -0.0087
 122      -5.782e-03      -7.775e-01       2.398e-02           0.038          -0.775          -0.631       4.066e-05         -0.0033
 123      -1.405e-02      -7.780e-01       2.400e-02           0.049          -0.778          -0.626       4.088e-05          0.0015
 124      -2.232e-02      -7.785e-01       2.398e-02           0.057          -0.780          -0.624       4.110e-05          0.0147
 125      -3.059e-02      -7.791e-01       2.389e-02           0.078          -0.783          -0.617       4.144e-05          0.0228
 126      -3.888e-02      -7.799e-01       2.367e-02           0.102          -0.785          -0.611       4.186e-05          0.0014
 127      -4.716e-02      -7.808e-01       2.337e-02           0.110          -0.785          -0.610       4.223e-05         -0.0593
 128      -5.544e-02      -7.816e-01       2.311e-02           0.084          -0.785          -0.614       4.239e-05         -0.1931
 129      -6.367e-02      -7.813e-01       2.384e-02          -0.254          -0.755          -0.605       4.303e-05          0.1029
 130      -6.352e-02      -7.778e-01       2.675e-02          -0.633           0.583           0.510       5.404e-05         -0.3830
 131      -5.510e-02      -7.737e-01       2.972e-02          -0.351           0.693           0.629       4.242e-05         -1.1550
 132      -4.676e-02      -7.715e-01       3.110e-02          -0.228           0.709           0.667       3.981e-05         -1.3084
 133      -3.845e-02      -7.701e-01       3.182e-02          -0.127           0.706           0.696       3.849e-05         -1.3388
 134      -3.017e-02      -7.693e-01       3.202e-02          -0.036           0.692           0.721       3.790e-05         -1.2549
 135      -2.191e-02      -7.691e-01       3.179e-02           0.037           0.672           0.740       3.786e-05         -1.0868
 136      -1.367e-02      -7.692e-01       3.125e-02           0.082           0.654           0.752       3.807e-05         -0.9194
 137      -5.442e-03      -7.696e-01       3.048e-02           0.124           0.635           0.763       3.848e-05         -0.7753
 138       2.776e-03      -7.703e-01       2.950e-02           0.160           0.615           0.772       3.905e-05         -0.6422
 139       1.098e-02      -7.712e-01       2.832e-02           0.194           0.593           0.781       3.979e-05         -0.5176
 140       1.918e-02      -7.723e-01       2.695e-02           0.228           0.569           0.790       4.071e-05         -0.3966
 141       2.737e-02      -7.737e-01       2.539e-02           0.259           0.544           0.798       4.181e-05         -0.2793
 142       3.554e-02      -7.753e-01       2.360e-02           0.304           0.503           0.809       4.352e-05         -0.1624
Strip 6
 143       4.011e-02      -7.730e-01       1.896e-02          -0.019          -0.750          -0.661       4.203e-05         -0.1003
 144       3.148e-02      -7.731e-01       1.933e-02          -0.021          -0.749          -0.662       4.206e-05         -0.0644
 145       2.284e-02      -7.732e-01       1.966e-02          -0.006          -0.757          -0.653       4.212e-05         -0.0343
 146       1.420e-02      -7.735e-01       1.991e-02           0.010          -0.765          -0.644       4.224e-05         -0.0122
 147       5.553e-03      -7.738e-01       2.007e-02           0.025          -0.771          -0.637       4.241e-05         -0.0002
 148      -3.096e-03      -7.742e-01       2.015e-02           0.038          -0.775          -0.631       4.261e-05          0.0065
 149      -1.175e-02      -7.747e-01       2.016e-02           0.049          -0.778          -0.626       4.283e-05          0.0118
 150      -2.041e-02      -7.753e-01       2.012e-02           0.056          -0.780          -0.624       4.307e-05          0.0253
 151      -2.907e-02      -7.759e-01       2.000e-02           0.078          -0.783          -0.617       4.342e-05          0.0345
 152      -3.773e-02      -7.767e-01       1.974e-02           0.102          -0.785          -0.611       4.385e-05          0.0155
 153      -4.640e-02      -7.776e-01       1.940e-02           0.110          -0.785          -0.610       4.424e-05         -0.0416
 154      -5.507e-02      -7.785e-01       1.910e-02           0.084          -0.785          -0.614       4.438e-05         -0.1704
 155      -6.369e-02      -7.781e-01       1.987e-02          -0.254          -0.755          -0.605       4.502e-05          0.1239
 156      -6.352e-02      -7.745e-01       2.303e-02          -0.633           0.583           0.510       5.661e-05         -0.4094
 157      -5.470e-02      -7.704e-01       2.628e-02          -0.351           0.693           0.629       4.447e-05         -1.1954
 158      -4.597e-02      -7.681e-01       2.780e-02          -0.228           0.709           0.667       4.174e-05         -1.3618
 159      -3.727e-02      -7.667e-01       2.861e-02          -0.127           0.706           0.696       4.034e-05         -1.3955
 160      -2.860e-02      -7.660e-01       2.884e-02          -0.036           0.692           0.721       3.970e-05         -1.3079
 161      -1.996e-02      -7.657e-01       2.861e-02           0.037           0.672           0.740       3.962e-05         -1.1305
 162      -1.134e-02      -7.658e-01       2.804e-02           0.083           0.654           0.752       3.981e-05         -0.9520
 163      -2.727e-03      -7.663e-01       2.721e-02           0.124           0.635           0.763       4.020e-05         -0.7969
 164       5.872e-03      -7.669e-01       2.617e-02           0.161           0.614           0.773       4.076e-05         -0.6534
 165       1.446e-02      -7.678e-01       2.490e-02           0.195           0.592           0.782       4.148e-05         -0.5189
 166       2.304e-02      -7.690e-01       2.343e-02           0.229           0.568           0.791       4.240e-05         -0.3881
 167       3.160e-02      -7.704e-01       2.176e-02           0.261           0.542           0.799       4.349e-05         -0.2590
 168       4.016e-02      -7.720e-01       1.982e-02           0.306           0.501           0.810       4.520e-05         -0.1288
Strip 7
 169       4.473e-02      -7.697e-01       1.532e-02          -0.022          -0.690          -0.724       4.237e-05         -0.0953
 170       3.571e-02      -7.697e-01       1.570e-02          -0.025          -0.688          -0.725       4.245e-05         -0.0573
 171       2.669e-02      -7.699e-01       1.604e-02          -0.009          -0.698          -0.716       4.256e-05         -0.0255
 172       1.766e-02      -7.701e-01       1.629e-02           0.007          -0.706          -0.708       4.277e-05         -0.0006
 173       8.634e-03      -7.704e-01       1.644e-02           0.022          -0.713          -0.701       4.309e-05          0.0132
 174      -4.013e-04      -7.709e-01       1.650e-02           0.035          -0.718          -0.695       4.349e-05          0.0204
 175      -9.440e-03      -7.714e-01       1.649e-02           0.046          -0.721          -0.691       4.395e-05          0.0261
 176      -1.848e-02      -7.719e-01       1.642e-02           0.053          -0.723          -0.689       4.446e-05          0.0399
 177      -2.753e-02      -7.726e-01       1.626e-02           0.075          -0.727          -0.683       4.513e-05          0.0495
 178      -3.658e-02      -7.733e-01       1.595e-02           0.098          -0.729          -0.677       4.595e-05          0.0316
 179      -4.564e-02      -7.742e-01       1.555e-02           0.106          -0.729          -0.676       4.679e-05         -0.0227
 180      -5.470e-02      -7.751e-01       1.520e-02           0.081          -0.728          -0.680       4.735e-05         -0.1442
 181      -6.370e-02      -7.747e-01       1.602e-02          -0.258          -0.698          -0.668       4.791e-05          0.1733
 182      -6.351e-02      -7.712e-01       1.950e-02          -0.630           0.539           0.559       5.799e-05         -0.4763
 183      -5.429e-02      -7.670e-01       2.311e-02          -0.348           0.636           0.689       4.339e-05         -1.2523
 184      -4.516e-02      -7.648e-01       2.481e-02          -0.225           0.646           0.730       3.961e-05         -1.4204
 185      -3.607e-02      -7.634e-01       2.572e-02          -0.123           0.637           0.761       3.759e-05         -1.4471
 186      -2.702e-02      -7.626e-01       2.600e-02          -0.032           0.616           0.787       3.667e-05         -1.3471
 187      -1.799e-02      -7.624e-01       2.577e-02           0.040           0.590           0.806       3.654e-05         -1.1572
 188      -8.987e-03      -7.625e-01       2.517e-02           0.086           0.569           0.818       3.685e-05         -0.9684
 189       5.112e-06      -7.629e-01       2.429e-02           0.127           0.547           0.827       3.750e-05         -0.8056
 190       8.985e-03      -7.636e-01       2.316e-02           0.163           0.526           0.835       3.844e-05         -0.6573
 191       1.795e-02      -7.645e-01       2.179e-02           0.196           0.504           0.841       3.967e-05         -0.5201
 192       2.691e-02      -7.656e-01       2.020e-02           0.230           0.480           0.847       4.121e-05         -0.3873
 193       3.585e-02      -7.670e-01       1.837e-02           0.261           0.457           0.850       4.304e-05         -0.2551
 194       4.478e-02      -7.687e-01       1.627e-02           0.305           0.419           0.855       4.568e-05         -0.1204
Strip 8
 195       4.936e-02      -7.662e-01       1.188e-02          -0.023          -0.690          -0.724       4.421e-05         -0.1284
 196       3.996e-02      -7.663e-01       1.228e-02          -0.025          -0.688          -0.725       4.429e-05         -0.0803
 197       3.055e-02      -7.664e-01       1.262e-02          -0.010          -0.698          -0.716       4.444e-05         -0.0387
 198       2.114e-02      -7.667e-01       1.287e-02           0.007          -0.706          -0.708       4.469e-05         -0.0079
 199       1.172e-02      -7.670e-01       1.300e-02           0.021          -0.713          -0.701       4.504e-05          0.0092
 200       2.303e-03      -7.674e-01       1.304e-02           0.035          -0.718          -0.695       4.546e-05          0.0194
 201      -7.122e-03      -7.679e-01       1.299e-02           0.045          -0.721          -0.691       4.595e-05          0.0273
 202      -1.655e-02      -7.684e-01       1.288e-02           0.053          -0.723          -0.689       4.647e-05          0.0429
 203      -2.598e-02      -7.690e-01       1.267e-02           0.075          -0.727          -0.683       4.716e-05          0.0549
 204      -3.543e-02      -7.698e-01       1.230e-02           0.098          -0.729          -0.677       4.802e-05          0.0402
 205      -4.488e-02      -7.707e-01       1.182e-02           0.106          -0.729          -0.676       4.886e-05         -0.0086
 206      -5.432e-02      -7.715e-01       1.140e-02           0.080          -0.728          -0.680       4.941e-05         -0.1220
 207      -6.370e-02      -7.711e-01       1.228e-02          -0.257          -0.698          -0.668       4.992e-05          0.1933
 208      -6.350e-02      -7.677e-01       1.615e-02          -0.630           0.539           0.559       6.057e-05         -0.5023
 209      -5.386e-02      -7.636e-01       2.019e-02          -0.348           0.636           0.688       4.541e-05         -1.2887
 210      -4.434e-02      -7.615e-01       2.211e-02          -0.225           0.646           0.730       4.147e-05         -1.4642
 211      -3.486e-02      -7.601e-01       2.316e-02          -0.124           0.637           0.761       3.934e-05         -1.4874
 212      -2.542e-02      -7.593e-01       2.350e-02          -0.032           0.616           0.787       3.830e-05         -1.3787
 213      -1.601e-02      -7.591e-01       2.328e-02           0.040           0.590           0.806       3.810e-05         -1.1776
 214      -6.620e-03      -7.592e-01       2.264e-02           0.086           0.569           0.818       3.835e-05         -0.9779
 215       2.754e-03      -7.596e-01       2.169e-02           0.128           0.547           0.827       3.895e-05         -0.8057
 216       1.211e-02      -7.603e-01       2.047e-02           0.165           0.524           0.835       3.984e-05         -0.6492
 217       2.146e-02      -7.612e-01       1.898e-02           0.199           0.502           0.842       4.102e-05         -0.5038
 218       3.079e-02      -7.623e-01       1.724e-02           0.233           0.477           0.847       4.251e-05         -0.3628
 219       4.011e-02      -7.636e-01       1.525e-02           0.265           0.453           0.851       4.430e-05         -0.2205
 220       4.941e-02      -7.653e-01       1.294e-02           0.310           0.413           0.857       4.687e-05         -0.0736
Strip 9
 221       5.401e-02      -7.626e-01       8.842e-03          -0.028          -0.554          -0.832       4.357e-05         -0.1204
 222       4.422e-02      -7.627e-01       9.243e-03          -0.031          -0.552          -0.834       4.373e-05         -0.0694
 223       3.443e-02      -7.628e-01       9.595e-03          -0.015          -0.563          -0.826       4.393e-05         -0.0254
 224       2.464e-02      -7.630e-01       9.828e-03           0.001          -0.573          -0.819       4.433e-05          0.0080
 225       1.483e-02      -7.633e-01       9.942e-03           0.015          -0.582          -0.813       4.490e-05          0.0277
 226       5.028e-03      -7.637e-01       9.947e-03           0.029          -0.588          -0.809       4.564e-05          0.0391
 227      -4.785e-03      -7.641e-01       9.860e-03           0.040          -0.592          -0.805       4.651e-05          0.0472
 228      -1.460e-02      -7.646e-01       9.701e-03           0.047          -0.594          -0.803       4.747e-05          0.0631
 229      -2.442e-02      -7.652e-01       9.427e-03           0.069          -0.598          -0.798       4.867e-05          0.0735
 230      -3.425e-02      -7.660e-01       8.975e-03           0.092          -0.601          -0.794       5.017e-05          0.0592
 231      -4.409e-02      -7.668e-01       8.398e-03           0.100          -0.601          -0.793       5.175e-05          0.0142
 232      -5.392e-02      -7.675e-01       7.891e-03           0.075          -0.599          -0.797       5.300e-05         -0.0889
 233      -6.368e-02      -7.672e-01       8.840e-03          -0.264          -0.568          -0.779       5.339e-05          0.2694
 234      -6.346e-02      -7.640e-01       1.317e-02          -0.626           0.440           0.644       6.116e-05         -0.6039
 235      -5.342e-02      -7.602e-01       1.772e-02          -0.342           0.508           0.791       4.229e-05         -1.3477
 236      -4.349e-02      -7.582e-01       1.990e-02          -0.218           0.504           0.836       3.669e-05         -1.5105
 237      -3.362e-02      -7.569e-01       2.111e-02          -0.117           0.481           0.869       3.361e-05         -1.5164
 238      -2.380e-02      -7.562e-01       2.153e-02          -0.026           0.445           0.895       3.216e-05         -1.3891
 239      -1.400e-02      -7.560e-01       2.132e-02           0.046           0.407           0.912       3.194e-05         -1.1747
 240      -4.226e-03      -7.561e-01       2.064e-02           0.091           0.380           0.921       3.243e-05         -0.9692
 241       5.529e-03      -7.565e-01       1.962e-02           0.131           0.354           0.926       3.349e-05         -0.7960
 242       1.527e-02      -7.571e-01       1.829e-02           0.166           0.331           0.929       3.503e-05         -0.6417
 243       2.499e-02      -7.579e-01       1.667e-02           0.199           0.311           0.930       3.706e-05         -0.5001
 244       3.470e-02      -7.590e-01       1.476e-02           0.231           0.291           0.928       3.960e-05         -0.3629
 245       4.439e-02      -7.602e-01       1.257e-02           0.261           0.274           0.925       4.263e-05         -0.2217
 246       5.407e-02      -7.617e-01       1.002e-02           0.305           0.243           0.921       4.675e-05         -0.0697
Strip 10
 247       5.868e-02      -7.589e-01       6.190e-03          -0.028          -0.554          -0.832       4.536e-05         -0.1522
 248       4.851e-02      -7.589e-01       6.599e-03          -0.031          -0.551          -0.834       4.551e-05         -0.1126
 249       3.833e-02      -7.590e-01       6.953e-03          -0.015          -0.563          -0.826       4.578e-05         -0.0514
 250       2.815e-02      -7.592e-01       7.173e-03           0.001          -0.573          -0.819       4.624e-05         -0.0046
 251       1.797e-02      -7.595e-01       7.260e-03           0.015          -0.582          -0.813       4.687e-05          0.0224
 252       7.771e-03      -7.598e-01       7.226e-03           0.028          -0.588          -0.809       4.766e-05          0.0371
 253      -2.428e-03      -7.602e-01       7.087e-03           0.039          -0.592          -0.805       4.856e-05          0.0477
 254      -1.263e-02      -7.607e-01       6.868e-03           0.047          -0.593          -0.804       4.954e-05          0.0649
 255      -2.284e-02      -7.612e-01       6.521e-03           0.068          -0.598          -0.798       5.079e-05          0.0772
 256      -3.306e-02      -7.618e-01       5.974e-03           0.091          -0.601          -0.794       5.233e-05          0.0674
 257      -4.329e-02      -7.625e-01       5.287e-03           0.100          -0.601          -0.793       5.393e-05          0.0290
 258      -5.351e-02      -7.632e-01       4.678e-03           0.074          -0.599          -0.797       5.515e-05         -0.0643
 259      -6.365e-02      -7.629e-01       5.701e-03          -0.263          -0.568          -0.779       5.543e-05          0.2971
 260      -6.340e-02      -7.601e-01       1.055e-02          -0.625           0.440           0.645       6.376e-05         -0.6494
 261      -5.295e-02      -7.567e-01       1.569e-02          -0.343           0.508           0.790       4.425e-05         -1.3814
 262      -4.263e-02      -7.549e-01       1.817e-02          -0.220           0.504           0.835       3.844e-05         -1.5367
 263      -3.236e-02      -7.538e-01       1.957e-02          -0.119           0.481           0.868       3.518e-05         -1.5322
 264      -2.214e-02      -7.532e-01       2.009e-02          -0.027           0.446           0.895       3.357e-05         -1.3930
 265      -1.196e-02      -7.530e-01       1.988e-02           0.046           0.407           0.912       3.320e-05         -1.1660
 266      -1.805e-03      -7.531e-01       1.917e-02           0.092           0.379           0.921       3.359e-05         -0.9525
 267       8.330e-03      -7.534e-01       1.806e-02           0.133           0.352           0.926       3.454e-05         -0.7751
 268       1.845e-02      -7.540e-01       1.661e-02           0.169           0.328           0.929       3.599e-05         -0.6172
 269       2.855e-02      -7.547e-01       1.484e-02           0.203           0.306           0.930       3.792e-05         -0.4716
 270       3.863e-02      -7.556e-01       1.274e-02           0.237           0.284           0.929       4.035e-05         -0.3291
 271       4.870e-02      -7.567e-01       1.032e-02           0.268           0.266           0.926       4.327e-05         -0.1773
 272       5.875e-02      -7.581e-01       7.513e-03           0.314           0.231           0.921       4.723e-05         -0.0009
Strip 11
 273       6.220e-02      -7.560e-01       4.486e-03          -0.035          -0.319          -0.947       2.181e-05         -0.2807
 274       5.174e-02      -7.561e-01       4.901e-03          -0.037          -0.316          -0.948       2.194e-05         -0.1146
 275       4.127e-02      -7.561e-01       5.257e-03          -0.022          -0.330          -0.944       2.209e-05         -0.0064
 276       3.080e-02      -7.563e-01       5.468e-03          -0.006          -0.343          -0.939       2.238e-05          0.0464
 277       2.033e-02      -7.565e-01       5.535e-03           0.009          -0.353          -0.936       2.283e-05          0.0707
 278       9.844e-03      -7.568e-01       5.471e-03           0.022          -0.360          -0.933       2.340e-05          0.0812
 279      -6.462e-04      -7.572e-01       5.295e-03           0.033          -0.365          -0.930       2.409e-05          0.0880
 280      -1.114e-02      -7.575e-01       5.032e-03           0.040          -0.367          -0.929       2.486e-05          0.1014
 281      -2.164e-02      -7.580e-01       4.630e-03           0.062          -0.373          -0.926       2.579e-05          0.1093
 282      -3.215e-02      -7.585e-01       4.013e-03           0.086          -0.377          -0.922       2.695e-05          0.0971
 283      -4.267e-02      -7.592e-01       3.243e-03           0.094          -0.376          -0.922       2.822e-05          0.0604
 284      -5.319e-02      -7.597e-01       2.559e-03           0.068          -0.372          -0.926       2.929e-05         -0.0238
 285      -6.362e-02      -7.595e-01       3.637e-03          -0.270          -0.343          -0.900       2.939e-05          0.3792
 286      -6.335e-02      -7.570e-01       8.875e-03          -0.621           0.266           0.737       3.155e-05         -0.7428
 287      -5.258e-02      -7.541e-01       1.445e-02          -0.335           0.287           0.897       1.960e-05         -1.4153
 288      -4.196e-02      -7.526e-01       1.717e-02          -0.211           0.259           0.942       1.569e-05         -1.5538
 289      -3.140e-02      -7.516e-01       1.870e-02          -0.109           0.209           0.972       1.352e-05         -1.5359
 290      -2.089e-02      -7.511e-01       1.928e-02          -0.019           0.144           0.989       1.252e-05         -1.3839
 291      -1.042e-02      -7.509e-01       1.909e-02           0.051           0.084           0.995       1.239e-05         -1.1486
 292       2.375e-05      -7.510e-01       1.834e-02           0.093           0.049           0.994       1.278e-05         -0.9335
 293       1.044e-02      -7.513e-01       1.718e-02           0.131           0.022           0.991       1.359e-05         -0.7594
 294       2.085e-02      -7.518e-01       1.564e-02           0.164           0.005           0.987       1.477e-05         -0.6100
 295       3.123e-02      -7.524e-01       1.375e-02           0.195          -0.005           0.981       1.631e-05         -0.4768
 296       4.160e-02      -7.532e-01       1.151e-02           0.226          -0.011           0.974       1.822e-05         -0.3501
 297       5.194e-02      -7.542e-01       8.924e-03           0.256          -0.013           0.967       2.050e-05         -0.2123
 298       6.227e-02      -7.553e-01       5.916e-03           0.299          -0.028           0.954       2.352e-05         -0.0606
Strip 12
 299       6.456e-02      -7.540e-01       3.729e-03          -0.035          -0.319          -0.947       2.224e-05         -0.2653
 300       5.391e-02      -7.541e-01       4.149e-03          -0.037          -0.316          -0.948       2.237e-05         -0.0546
 301       4.326e-02      -7.541e-01       4.506e-03          -0.022          -0.330          -0.944       2.254e-05          0.0451
 302       3.259e-02      -7.543e-01       4.712e-03          -0.006          -0.343          -0.939       2.286e-05          0.0910
 303       2.192e-02      -7.545e-01       4.766e-03           0.009          -0.353          -0.936       2.333e-05          0.1101
 304       1.125e-02      -7.547e-01       4.684e-03           0.022          -0.360          -0.933       2.392e-05          0.1163
 305       5.620e-04      -7.550e-01       4.483e-03           0.033          -0.365          -0.930       2.462e-05          0.1195
 306      -1.013e-02      -7.553e-01       4.191e-03           0.040          -0.367          -0.929       2.540e-05          0.1294
 307      -2.082e-02      -7.557e-01       3.754e-03           0.062          -0.373          -0.926       2.635e-05          0.1356
 308      -3.153e-02      -7.561e-01       3.091e-03           0.085          -0.377          -0.922       2.752e-05          0.1230
 309      -4.224e-02      -7.567e-01       2.268e-03           0.093          -0.376          -0.922       2.880e-05          0.0861
 310      -5.295e-02      -7.571e-01       1.534e-03           0.067          -0.372          -0.926       2.986e-05         -0.0011
 311      -6.357e-02      -7.569e-01       2.649e-03          -0.270          -0.343          -0.900       2.991e-05          0.4123
 312      -6.329e-02      -7.549e-01       8.144e-03          -0.621           0.267           0.737       3.221e-05         -0.7921
 313      -5.232e-02      -7.524e-01       1.401e-02          -0.336           0.287           0.897       2.007e-05         -1.4153
 314      -4.150e-02      -7.512e-01       1.687e-02          -0.213           0.260           0.942       1.610e-05         -1.5436
 315      -3.074e-02      -7.503e-01       1.849e-02          -0.111           0.210           0.971       1.386e-05         -1.5186
 316      -2.003e-02      -7.499e-01       1.912e-02          -0.020           0.145           0.989       1.280e-05         -1.3632
 317      -9.371e-03      -7.497e-01       1.894e-02           0.051           0.084           0.995       1.262e-05         -1.1295
 318       1.262e-03      -7.498e-01       1.817e-02           0.094           0.047           0.994       1.298e-05         -0.9179
 319       1.187e-02      -7.501e-01       1.696e-02           0.133           0.019           0.991       1.375e-05         -0.7475
 320       2.246e-02      -7.505e-01       1.536e-02           0.167           0.001           0.986       1.489e-05         -0.6028
 321       3.304e-02      -7.510e-01       1.339e-02           0.199          -0.010           0.980       1.638e-05         -0.4766
 322       4.359e-02      -7.517e-01       1.106e-02           0.231          -0.018           0.973       1.825e-05         -0.3628
 323       5.413e-02      -7.525e-01       8.368e-03           0.262          -0.020           0.965       2.049e-05         -0.2540
 324       6.464e-02      -7.534e-01       5.229e-03           0.305          -0.037           0.952       2.344e-05         -0.1638
Strip 13
 325       6.693e-02      -7.520e-01       2.972e-03          -0.035          -0.319          -0.947       2.267e-05         -0.2029
 326       5.608e-02      -7.521e-01       3.397e-03          -0.037          -0.316          -0.948       2.279e-05          0.0060
 327       4.524e-02      -7.521e-01       3.756e-03          -0.022          -0.330          -0.944       2.299e-05          0.0832
 328       3.438e-02      -7.522e-01       3.955e-03          -0.006          -0.343          -0.939       2.334e-05          0.1211
 329       2.352e-02      -7.524e-01       3.998e-03           0.009          -0.353          -0.936       2.383e-05          0.1348
 330       1.265e-02      -7.526e-01       3.896e-03           0.022          -0.360          -0.933       2.444e-05          0.1375
 331       1.770e-03      -7.528e-01       3.671e-03           0.032          -0.365          -0.931       2.515e-05          0.1380
 332      -9.112e-03      -7.531e-01       3.351e-03           0.040          -0.367          -0.929       2.593e-05          0.1457
 333      -2.000e-02      -7.534e-01       2.879e-03           0.061          -0.373          -0.926       2.690e-05          0.1512
 334      -3.090e-02      -7.537e-01       2.169e-03           0.085          -0.377          -0.923       2.809e-05          0.1390
 335      -4.181e-02      -7.542e-01       1.293e-03           0.093          -0.376          -0.922       2.937e-05          0.1045
 336      -5.272e-02      -7.546e-01       5.097e-04           0.067          -0.372          -0.926       3.042e-05          0.0200
 337      -6.352e-02      -7.544e-01       1.661e-03          -0.270          -0.343          -0.900       3.043e-05          0.4467
 338      -6.323e-02      -7.527e-01       7.412e-03          -0.621           0.267           0.737       3.286e-05         -0.8375
 339      -5.205e-02      -7.507e-01       1.356e-02          -0.337           0.287           0.897       2.055e-05         -1.4204
 340      -4.103e-02      -7.497e-01       1.658e-02          -0.214           0.260           0.942       1.651e-05         -1.5406
 341      -3.008e-02      -7.490e-01       1.829e-02          -0.113           0.211           0.971       1.421e-05         -1.5084
 342      -1.918e-02      -7.487e-01       1.896e-02          -0.021           0.146           0.989       1.309e-05         -1.3480
 343      -8.324e-03      -7.486e-01       1.879e-02           0.051           0.084           0.995       1.285e-05         -1.1134
 344       2.501e-03      -7.486e-01       1.799e-02           0.095           0.046           0.994       1.317e-05         -0.9043
 345       1.330e-02      -7.488e-01       1.675e-02           0.135           0.017           0.991       1.390e-05         -0.7381
 346       2.408e-02      -7.491e-01       1.509e-02           0.170          -0.003           0.985       1.500e-05         -0.6003
 347       3.484e-02      -7.496e-01       1.304e-02           0.203          -0.016           0.979       1.646e-05         -0.4861
 348       4.559e-02      -7.501e-01       1.062e-02           0.236          -0.024           0.972       1.829e-05         -0.3948
 349       5.631e-02      -7.508e-01       7.813e-03           0.267          -0.028           0.963       2.048e-05         -0.3396
 350       6.701e-02      -7.516e-01       4.542e-03           0.312          -0.046           0.949       2.336e-05         -0.4179
Strip 14
 351       6.929e-02      -7.500e-01       2.216e-03          -0.035          -0.319          -0.947       2.310e-05         -0.0556
 352       5.826e-02      -7.501e-01       2.645e-03          -0.037          -0.316          -0.948       2.322e-05          0.0797
 353       4.722e-02      -7.501e-01       3.005e-03          -0.022          -0.330          -0.944       2.345e-05          0.1151
 354       3.617e-02      -7.502e-01       3.199e-03          -0.006          -0.343          -0.939       2.382e-05          0.1410
 355       2.511e-02      -7.503e-01       3.229e-03           0.008          -0.353          -0.936       2.432e-05          0.1488
 356       1.405e-02      -7.504e-01       3.109e-03           0.021          -0.360          -0.933       2.495e-05          0.1505
 357       2.978e-03      -7.506e-01       2.859e-03           0.032          -0.365          -0.931       2.568e-05          0.1489
 358      -8.097e-03      -7.508e-01       2.510e-03           0.039          -0.367          -0.929       2.647e-05          0.1551
 359      -1.918e-02      -7.511e-01       2.003e-03           0.061          -0.373          -0.926       2.745e-05          0.1601
 360      -3.028e-02      -7.513e-01       1.247e-03           0.084          -0.376          -0.923       2.866e-05          0.1508
 361      -4.138e-02      -7.517e-01       3.174e-04           0.092          -0.376          -0.922       2.995e-05          0.1205
 362      -5.248e-02      -7.520e-01      -5.149e-04           0.067          -0.372          -0.926       3.099e-05          0.0418
 363      -6.348e-02      -7.518e-01       6.738e-04          -0.270          -0.343          -0.900       3.096e-05          0.4729
 364      -6.317e-02      -7.505e-01       6.680e-03          -0.620           0.267           0.738       3.352e-05         -0.8726
 365      -5.179e-02      -7.491e-01       1.312e-02          -0.338           0.287           0.896       2.102e-05         -1.4205
 366      -4.057e-02      -7.483e-01       1.628e-02          -0.215           0.260           0.941       1.691e-05         -1.5364
 367      -2.942e-02      -7.477e-01       1.808e-02          -0.114           0.212           0.971       1.456e-05         -1.4969
 368      -1.833e-02      -7.475e-01       1.881e-02          -0.022           0.146           0.989       1.337e-05         -1.3322
 369      -7.276e-03      -7.474e-01       1.863e-02           0.051           0.084           0.995       1.308e-05         -1.0973
 370       3.740e-03      -7.474e-01       1.782e-02           0.096           0.045           0.994       1.336e-05         -0.8912
 371       1.473e-02      -7.476e-01       1.653e-02           0.137           0.014           0.990       1.405e-05         -0.7291
 372       2.570e-02      -7.478e-01       1.481e-02           0.173          -0.007           0.985       1.512e-05         -0.5965
 373       3.665e-02      -7.482e-01       1.269e-02           0.207          -0.021           0.978       1.654e-05         -0.4896
 374       4.758e-02      -7.486e-01       1.017e-02           0.240          -0.031           0.970       1.832e-05         -0.4089
 375       5.849e-02      -7.491e-01       7.257e-03           0.272          -0.036           0.962       2.047e-05         -0.3791
 376       6.938e-02      -7.497e-01       3.855e-03           0.318          -0.055           0.946       2.329e-05         -0.5429
Strip 15
 377       7.447e-02      -7.152e-01       1.338e-03          -0.042          -0.010          -0.999       7.754e-04          0.1745
 378       6.302e-02      -7.152e-01       1.830e-03          -0.044          -0.008          -0.999       7.754e-04          0.1904
 379       5.156e-02      -7.153e-01       2.250e-03          -0.029          -0.008          -1.000       7.755e-04          0.2040
 380       4.010e-02      -7.153e-01       2.496e-03          -0.014          -0.008          -1.000       7.758e-04          0.2181
 381       2.863e-02      -7.154e-01       2.568e-03           0.001          -0.008          -1.000       7.763e-04          0.2272
 382       1.715e-02      -7.155e-01       2.483e-03           0.014          -0.008          -1.000       7.770e-04          0.2336
 383       5.661e-03      -7.157e-01       2.262e-03           0.025          -0.007          -1.000       7.778e-04          0.2408
 384      -5.831e-03      -7.158e-01       1.937e-03           0.032          -0.006          -0.999       7.785e-04          0.2558
 385      -1.733e-02      -7.160e-01       1.445e-03           0.054          -0.006          -0.999       7.803e-04          0.2679
 386      -2.885e-02      -7.162e-01       6.927e-04           0.077          -0.005          -0.997       7.828e-04          0.2657
 387      -4.037e-02      -7.165e-01      -2.427e-04           0.085          -0.004          -0.996       7.841e-04          0.2508
 388      -5.189e-02      -7.167e-01      -1.076e-03           0.059          -0.002          -0.998       7.822e-04          0.2179
 389      -6.330e-02      -7.166e-01       2.145e-04          -0.277           0.002          -0.961       7.987e-04          0.7084
 390      -6.297e-02      -7.156e-01       6.526e-03          -0.616          -0.002           0.787       1.027e-03         -1.2753
 391      -5.116e-02      -7.144e-01       1.325e-02          -0.330          -0.005           0.944       8.358e-04         -1.4362
 392      -3.951e-02      -7.138e-01       1.653e-02          -0.207          -0.006           0.978       7.997e-04         -1.4411
 393      -2.794e-02      -7.134e-01       1.838e-02          -0.107          -0.008           0.994       7.822e-04         -1.3886
 394      -1.643e-02      -7.132e-01       1.910e-02          -0.016          -0.010           1.000       7.742e-04         -1.2582
 395      -4.968e-03      -7.131e-01       1.888e-02           0.055          -0.012           0.998       7.728e-04         -1.0657
 396       6.462e-03      -7.131e-01       1.798e-02           0.100          -0.014           0.995       7.741e-04         -0.8862
 397       1.787e-02      -7.132e-01       1.659e-02           0.142          -0.015           0.990       7.770e-04         -0.7340
 398       2.925e-02      -7.134e-01       1.474e-02           0.178          -0.016           0.984       7.810e-04         -0.5928
 399       4.061e-02      -7.137e-01       1.247e-02           0.213          -0.018           0.977       7.860e-04         -0.4554
 400       5.195e-02      -7.140e-01       9.780e-03           0.247          -0.020           0.969       7.922e-04         -0.3089
 401       6.326e-02      -7.144e-01       6.677e-03           0.280          -0.022           0.960       7.995e-04         -0.1392
 402       7.456e-02      -7.149e-01       3.061e-03           0.328          -0.026           0.944       8.120e-04          0.0546
Strip 16
 403       8.245e-02      -6.475e-01       3.395e-04          -0.050          -0.009          -0.999       8.189e-04          0.2137
 404       7.037e-02      -6.475e-01       9.536e-04          -0.052          -0.007          -0.999       8.189e-04          0.2368
 405       5.828e-02      -6.476e-01       1.491e-03          -0.037          -0.008          -0.999       8.189e-04          0.2566
 406       4.617e-02      -6.476e-01       1.845e-03          -0.021          -0.008          -1.000       8.192e-04          0.2760
 407       3.406e-02      -6.477e-01       2.016e-03          -0.007          -0.008          -1.000       8.196e-04          0.2899
 408       2.195e-02      -6.478e-01       2.020e-03           0.006          -0.007          -1.000       8.203e-04          0.3009
 409       9.819e-03      -6.479e-01       1.881e-03           0.017          -0.007          -1.000       8.211e-04          0.3122
 410      -2.312e-03      -6.481e-01       1.632e-03           0.024          -0.006          -1.000       8.218e-04          0.3311
 411      -1.445e-02      -6.482e-01       1.206e-03           0.046          -0.005          -0.999       8.236e-04          0.3482
 412      -2.661e-02      -6.484e-01       5.061e-04           0.069          -0.005          -0.998       8.260e-04          0.3531
 413      -3.877e-02      -6.487e-01      -3.873e-04           0.077          -0.004          -0.997       8.273e-04          0.3499
 414      -5.093e-02      -6.489e-01      -1.173e-03           0.052          -0.002          -0.999       8.254e-04          0.3408
 415      -6.298e-02      -6.488e-01       2.838e-04          -0.284           0.002          -0.959       8.448e-04          0.8300
 416      -6.264e-02      -6.479e-01       6.948e-03          -0.613          -0.002           0.790       1.081e-03         -1.6481
 417      -5.016e-02      -6.468e-01       1.396e-02          -0.324          -0.005           0.946       8.804e-04         -1.5819
 418      -3.787e-02      -6.463e-01       1.732e-02          -0.200          -0.007           0.980       8.431e-04         -1.5350
 419      -2.565e-02      -6.459e-01       1.919e-02          -0.099          -0.008           0.995       8.252e-04         -1.4578
 420      -1.350e-02      -6.457e-01       1.985e-02          -0.009          -0.011           1.000       8.173e-04         -1.3156
 421      -1.397e-03      -6.457e-01       1.952e-02           0.063          -0.013           0.998       8.161e-04         -1.1173
 422       1.067e-02      -6.457e-01       1.848e-02           0.108          -0.014           0.994       8.178e-04         -0.9351
 423       2.271e-02      -6.458e-01       1.691e-02           0.149          -0.015           0.989       8.210e-04         -0.7798
 424       3.472e-02      -6.460e-01       1.487e-02           0.186          -0.017           0.982       8.254e-04         -0.6332
 425       4.671e-02      -6.462e-01       1.237e-02           0.220          -0.019           0.975       8.308e-04         -0.4875
 426       5.868e-02      -6.465e-01       9.442e-03           0.255          -0.021           0.967       8.375e-04         -0.3302
 427       7.063e-02      -6.469e-01       6.071e-03           0.287          -0.023           0.958       8.452e-04         -0.1498
 428       8.255e-02      -6.473e-01       2.158e-03           0.334          -0.027           0.942       8.585e-04          0.0526
Strip 17
 429       9.044e-02      -5.799e-01      -6.589e-04          -0.057          -0.008          -0.998       8.624e-04          0.2293
 430       7.772e-02      -5.799e-01       7.690e-05          -0.059          -0.007          -0.998       8.625e-04          0.2548
 431       6.499e-02      -5.799e-01       7.324e-04          -0.044          -0.007          -0.999       8.624e-04          0.2769
 432       5.225e-02      -5.799e-01       1.194e-03          -0.028          -0.007          -1.000       8.626e-04          0.2983
 433       3.950e-02      -5.800e-01       1.463e-03          -0.014          -0.007          -1.000       8.630e-04          0.3142
 434       2.674e-02      -5.801e-01       1.557e-03          -0.001          -0.007          -1.000       8.637e-04          0.3272
 435       1.398e-02      -5.802e-01       1.499e-03           0.010          -0.006          -1.000       8.644e-04          0.3407
 436       1.206e-03      -5.803e-01       1.326e-03           0.017          -0.005          -1.000       8.651e-04          0.3616
 437      -1.158e-02      -5.805e-01       9.676e-04           0.039          -0.005          -0.999       8.668e-04          0.3810
 438      -2.437e-02      -5.807e-01       3.196e-04           0.062          -0.005          -0.998       8.693e-04          0.3899
 439      -3.718e-02      -5.809e-01      -5.319e-04           0.070          -0.004          -0.998       8.706e-04          0.3933
 440      -4.998e-02      -5.810e-01      -1.270e-03           0.045          -0.002          -0.999       8.687e-04          0.3973
 441      -6.266e-02      -5.810e-01       3.531e-04          -0.291           0.002          -0.957       8.911e-04          0.8829
 442      -6.230e-02      -5.802e-01       7.370e-03          -0.609          -0.002           0.793       1.134e-03         -1.8771
 443      -4.916e-02      -5.793e-01       1.466e-02          -0.318          -0.005           0.948       9.251e-04         -1.6853
 444      -3.622e-02      -5.788e-01       1.811e-02          -0.194          -0.007           0.981       8.866e-04         -1.6111
 445      -2.336e-02      -5.785e-01       1.999e-02          -0.093          -0.009           0.996       8.683e-04         -1.5175
 446      -1.057e-02      -5.783e-01       2.059e-02          -0.002          -0.011           1.000       8.604e-04         -1.3624
 447       2.174e-03      -5.782e-01       2.016e-02           0.070          -0.013           0.997       8.596e-04         -1.1533
 448       1.488e-02      -5.783e-01       1.898e-02           0.115          -0.014           0.993       8.615e-04         -0.9627
 449       2.755e-02      -5.784e-01       1.724e-02           0.156          -0.016           0.988       8.651e-04         -0.8006
 450       4.020e-02      -5.785e-01       1.499e-02           0.193          -0.017           0.981       8.698e-04         -0.6478
 451       5.282e-02      -5.787e-01       1.228e-02           0.227          -0.019           0.974       8.756e-04         -0.4962
 452       6.542e-02      -5.790e-01       9.103e-03           0.261          -0.021           0.965       8.828e-04         -0.3332
 453       7.799e-02      -5.793e-01       5.465e-03           0.293          -0.023           0.956       8.910e-04         -0.1474
 454       9.054e-02      -5.796e-01       1.256e-03           0.341          -0.028           0.940       9.051e-04          0.0600
Strip 18
 455       9.843e-02      -5.122e-01      -1.657e-03          -0.063          -0.007          -0.998       9.059e-04          0.2370
 456       8.507e-02      -5.122e-01      -7.998e-04          -0.065          -0.006          -0.998       9.060e-04          0.2636
 457       7.170e-02      -5.122e-01      -2.669e-05          -0.050          -0.006          -0.999       9.059e-04          0.2865
 458       5.832e-02      -5.123e-01       5.425e-04          -0.035          -0.007          -0.999       9.060e-04          0.3087
 459       4.494e-02      -5.123e-01       9.099e-04          -0.020          -0.007          -1.000       9.064e-04          0.3256
 460       3.154e-02      -5.124e-01       1.093e-03          -0.007          -0.006          -1.000       9.070e-04          0.3396
 461       1.814e-02      -5.125e-01       1.118e-03           0.004          -0.006          -1.000       9.077e-04          0.3542
 462       4.724e-03      -5.126e-01       1.021e-03           0.011          -0.005          -1.000       9.084e-04          0.3763
 463      -8.697e-03      -5.127e-01       7.289e-04           0.033          -0.005          -0.999       9.101e-04          0.3971
 464      -2.213e-02      -5.129e-01       1.330e-04           0.056          -0.005          -0.998       9.126e-04          0.4081
 465      -3.558e-02      -5.130e-01      -6.765e-04           0.064          -0.004          -0.998       9.139e-04          0.4152
 466      -4.902e-02      -5.132e-01      -1.367e-03           0.038          -0.002          -0.999       9.120e-04          0.4264
 467      -6.234e-02      -5.131e-01       4.225e-04          -0.296           0.002          -0.955       9.373e-04          0.9081
 468      -6.196e-02      -5.125e-01       7.792e-03          -0.606          -0.002           0.795       1.188e-03         -2.0071
 469      -4.816e-02      -5.117e-01       1.536e-02          -0.313          -0.005           0.950       9.699e-04         -1.7435
 470      -3.457e-02      -5.113e-01       1.891e-02          -0.188          -0.007           0.982       9.300e-04         -1.6520
 471      -2.107e-02      -5.110e-01       2.079e-02          -0.086          -0.009           0.996       9.114e-04         -1.5478
 472      -7.634e-03      -5.109e-01       2.134e-02           0.005          -0.011           1.000       9.036e-04         -1.3843
 473       5.745e-03      -5.108e-01       2.080e-02           0.076          -0.014           0.997       9.030e-04         -1.1685
 474       1.908e-02      -5.108e-01       1.947e-02           0.121          -0.015           0.992       9.053e-04         -0.9729
 475       3.239e-02      -5.109e-01       1.756e-02           0.162          -0.016           0.987       9.092e-04         -0.8068
 476       4.567e-02      -5.111e-01       1.512e-02           0.199          -0.018           0.980       9.143e-04         -0.6507
 477       5.893e-02      -5.112e-01       1.219e-02           0.233          -0.020           0.972       9.205e-04         -0.4963
 478       7.215e-02      -5.114e-01       8.765e-03           0.267          -0.022           0.963       9.281e-04         -0.3307
 479       8.536e-02      -5.117e-01       4.859e-03           0.299          -0.024           0.954       9.368e-04         -0.1425
 480       9.853e-02      -5.120e-01       3.541e-04           0.346          -0.028           0.938       9.517e-04          0.0670
Strip 19
 481       1.064e-01      -4.445e-01      -2.656e-03          -0.069          -0.007          -0.998       9.495e-04          0.2410
 482       9.242e-02      -4.445e-01      -1.677e-03          -0.071          -0.005          -0.997       9.496e-04          0.2674
 483       7.841e-02      -4.445e-01      -7.857e-04          -0.056          -0.006          -0.998       9.494e-04          0.2902
 484       6.440e-02      -4.446e-01      -1.087e-04          -0.040          -0.006          -0.999       9.495e-04          0.3124
 485       5.037e-02      -4.446e-01       3.570e-04          -0.026          -0.006          -1.000       9.499e-04          0.3294
 486       3.634e-02      -4.447e-01       6.298e-04          -0.013          -0.006          -1.000       9.504e-04          0.3437
 487       2.229e-02      -4.448e-01       7.362e-04          -0.002          -0.005          -1.000       9.511e-04          0.3587
 488       8.243e-03      -4.449e-01       7.154e-04           0.005          -0.005          -1.000       9.518e-04          0.3812
 489      -5.819e-03      -4.449e-01       4.901e-04           0.027          -0.005          -1.000       9.535e-04          0.4026
 490      -1.990e-02      -4.451e-01      -5.361e-05           0.050          -0.004          -0.999       9.559e-04          0.4146
 491      -3.399e-02      -4.452e-01      -8.211e-04           0.059          -0.004          -0.998       9.572e-04          0.4231
 492      -4.807e-02      -4.453e-01      -1.464e-03           0.033          -0.002          -0.999       9.553e-04          0.4375
 493      -6.202e-02      -4.453e-01       4.918e-04          -0.301           0.002          -0.953       9.836e-04          0.9176
 494      -6.162e-02      -4.447e-01       8.213e-03          -0.604          -0.002           0.797       1.242e-03         -2.0569
 495      -4.716e-02      -4.441e-01       1.607e-02          -0.308          -0.005           0.951       1.015e-03         -1.7636
 496      -3.292e-02      -4.438e-01       1.970e-02          -0.183          -0.007           0.983       9.736e-04         -1.6626
 497      -1.878e-02      -4.436e-01       2.159e-02          -0.081          -0.009           0.997       9.545e-04         -1.5523
 498      -4.701e-03      -4.434e-01       2.209e-02           0.010          -0.012           1.000       9.468e-04         -1.3845
 499       9.316e-03      -4.434e-01       2.144e-02           0.082          -0.014           0.997       9.465e-04         -1.1656
 500       2.329e-02      -4.434e-01       1.997e-02           0.127          -0.015           0.992       9.491e-04         -0.9681
 501       3.723e-02      -4.435e-01       1.789e-02           0.168          -0.017           0.986       9.533e-04         -0.8008
 502       5.114e-02      -4.436e-01       1.525e-02           0.204          -0.018           0.979       9.588e-04         -0.6438
 503       6.503e-02      -4.437e-01       1.209e-02           0.238          -0.020           0.971       9.654e-04         -0.4889
 504       7.889e-02      -4.439e-01       8.426e-03           0.272          -0.022           0.962       9.734e-04         -0.3232
 505       9.272e-02      -4.441e-01       4.253e-03           0.304          -0.025           0.952       9.826e-04         -0.1353
 506       1.065e-01      -4.444e-01      -5.481e-04           0.351          -0.029           0.936       9.984e-04          0.0741
Strip 20
 507       1.144e-01      -3.768e-01      -3.654e-03          -0.074          -0.006          -0.997       9.931e-04          0.2422
 508       9.977e-02      -3.769e-01      -2.553e-03          -0.076          -0.005          -0.997       9.932e-04          0.2675
 509       8.513e-02      -3.769e-01      -1.545e-03          -0.061          -0.005          -0.998       9.930e-04          0.2892
 510       7.047e-02      -3.769e-01      -7.598e-04          -0.046          -0.006          -0.999       9.930e-04          0.3105
 511       5.581e-02      -3.769e-01      -1.959e-04          -0.031          -0.006          -0.999       9.933e-04          0.3268
 512       4.114e-02      -3.770e-01       1.664e-04          -0.018          -0.006          -1.000       9.939e-04          0.3407
 513       2.645e-02      -3.770e-01       3.547e-04          -0.007          -0.005          -1.000       9.945e-04          0.3553
 514       1.176e-02      -3.771e-01       4.100e-04          -0.000          -0.005          -1.000       9.952e-04          0.3778
 515      -2.941e-03      -3.772e-01       2.513e-04           0.022          -0.004          -1.000       9.968e-04          0.3990
 516      -1.766e-02      -3.773e-01      -2.402e-04           0.045          -0.004          -0.999       9.993e-04          0.4108
 517      -3.239e-02      -3.774e-01      -9.658e-04           0.053          -0.003          -0.999       1.001e-03          0.4192
 518      -4.711e-02      -3.775e-01      -1.561e-03           0.027          -0.002          -1.000       9.987e-04          0.4334
 519      -6.170e-02      -3.774e-01       5.611e-04          -0.306           0.002          -0.952       1.030e-03          0.9151
 520      -6.128e-02      -3.770e-01       8.635e-03          -0.601          -0.002           0.799       1.295e-03         -2.0328
 521      -4.616e-02      -3.765e-01       1.677e-02          -0.304          -0.005           0.953       1.059e-03         -1.7477
 522      -3.128e-02      -3.763e-01       2.049e-02          -0.178          -0.007           0.984       1.017e-03         -1.6441
 523      -1.648e-02      -3.761e-01       2.239e-02          -0.076          -0.009           0.997       9.977e-04         -1.5318
 524      -1.768e-03      -3.760e-01       2.284e-02           0.016          -0.012           1.000       9.900e-04         -1.3630
 525       1.289e-02      -3.760e-01       2.208e-02           0.087          -0.014           0.996       9.900e-04         -1.1444
 526       2.750e-02      -3.760e-01       2.047e-02           0.132          -0.016           0.991       9.929e-04         -0.9481
 527       4.207e-02      -3.760e-01       1.821e-02           0.173          -0.017           0.985       9.975e-04         -0.7819
 528       5.662e-02      -3.761e-01       1.538e-02           0.209          -0.019           0.978       1.003e-03         -0.6266
 529       7.114e-02      -3.762e-01       1.200e-02           0.243          -0.021           0.970       1.010e-03         -0.4736
 530       8.563e-02      -3.764e-01       8.088e-03           0.277          -0.023           0.961       1.019e-03         -0.3102
 531       1.001e-01      -3.765e-01       3.647e-03           0.309          -0.025           0.951       1.028e-03         -0.1249
 532       1.145e-01      -3.767e-01      -1.450e-03           0.356          -0.030           0.934       1.045e-03          0.0819
Strip 21
 533       1.224e-01      -3.092e-01      -4.653e-03          -0.079          -0.005          -0.997       1.037e-03          0.2405
 534       1.071e-01      -3.092e-01      -3.430e-03          -0.081          -0.004          -0.997       1.037e-03          0.2634
 535       9.184e-02      -3.092e-01      -2.304e-03          -0.066          -0.005          -0.998       1.037e-03          0.2827
 536       7.655e-02      -3.092e-01      -1.411e-03          -0.050          -0.005          -0.999       1.037e-03          0.3021
 537       6.125e-02      -3.092e-01      -7.487e-04          -0.036          -0.005          -0.999       1.037e-03          0.3169
 538       4.593e-02      -3.093e-01      -2.970e-04          -0.023          -0.005          -1.000       1.037e-03          0.3295
 539       3.061e-02      -3.093e-01      -2.689e-05          -0.012          -0.005          -1.000       1.038e-03          0.3430
 540       1.528e-02      -3.094e-01       1.045e-04          -0.005          -0.004          -1.000       1.039e-03          0.3647
[...]
1580      -2.041e-02       7.753e-01       2.012e-02           0.056           0.780          -0.624       4.307e-05          0.0253
1581      -2.907e-02       7.759e-01       2.000e-02           0.078           0.783          -0.617       4.342e-05          0.0344
1582      -3.773e-02       7.767e-01       1.974e-02           0.102           0.785          -0.611       4.385e-05          0.0155
1583      -4.640e-02       7.776e-01       1.940e-02           0.110           0.785          -0.610       4.424e-05         -0.0416
1584      -5.507e-02       7.785e-01       1.910e-02           0.084           0.785          -0.614       4.438e-05         -0.1704
1585      -6.369e-02       7.781e-01       1.987e-02          -0.254           0.755          -0.605       4.502e-05          0.1239
1586      -6.352e-02       7.745e-01       2.303e-02          -0.633          -0.583           0.510       5.661e-05         -0.4094
1587      -5.470e-02       7.704e-01       2.628e-02          -0.351          -0.693           0.629       4.447e-05         -1.1954
1588      -4.597e-02       7.681e-01       2.780e-02          -0.228          -0.709           0.667       4.174e-05         -1.3618
1589      -3.727e-02       7.667e-01       2.861e-02          -0.127          -0.706           0.696       4.034e-05         -1.3955
1590      -2.860e-02       7.660e-01       2.884e-02          -0.036          -0.692           0.721       3.970e-05         -1.3079
1591      -1.996e-02       7.657e-01       2.861e-02           0.037          -0.672           0.740       3.962e-05         -1.1305
1592      -1.134e-02       7.658e-01       2.804e-02           0.083          -0.654           0.752       3.981e-05         -0.9520
1593      -2.727e-03       7.663e-01       2.721e-02           0.124          -0.635           0.763       4.020e-05         -0.7970
1594       5.872e-03       7.669e-01       2.617e-02           0.161          -0.614           0.773       4.076e-05         -0.6535
1595       1.446e-02       7.678e-01       2.490e-02           0.195          -0.592           0.782       4.148e-05         -0.5189
1596       2.304e-02       7.690e-01       2.343e-02           0.229          -0.568           0.791       4.240e-05         -0.3881
1597       3.160e-02       7.704e-01       2.176e-02           0.261          -0.542           0.799       4.349e-05         -0.2590
1598       4.016e-02       7.720e-01       1.982e-02           0.306          -0.501           0.810       4.520e-05         -0.1287
Strip 62
1599       3.550e-02       7.763e-01       2.280e-02          -0.019           0.750          -0.661       4.014e-05         -0.0915
1600       2.725e-02       7.764e-01       2.316e-02          -0.021           0.749          -0.662       4.017e-05         -0.0629
1601       1.900e-02       7.765e-01       2.348e-02          -0.006           0.757          -0.653       4.022e-05         -0.0383
1602       1.074e-02       7.767e-01       2.372e-02           0.010           0.765          -0.644       4.032e-05         -0.0188
1603       2.482e-03       7.771e-01       2.389e-02           0.025           0.771          -0.637       4.047e-05         -0.0087
1604      -5.782e-03       7.775e-01       2.398e-02           0.038           0.775          -0.631       4.066e-05         -0.0033
1605      -1.405e-02       7.780e-01       2.400e-02           0.049           0.778          -0.626       4.088e-05          0.0015
1606      -2.232e-02       7.785e-01       2.398e-02           0.057           0.780          -0.624       4.110e-05          0.0147
1607      -3.059e-02       7.791e-01       2.389e-02           0.078           0.783          -0.617       4.144e-05          0.0228
1608      -3.888e-02       7.799e-01       2.367e-02           0.102           0.785          -0.611       4.186e-05          0.0014
1609      -4.716e-02       7.808e-01       2.337e-02           0.110           0.785          -0.610       4.223e-05         -0.0593
1610      -5.544e-02       7.816e-01       2.311e-02           0.084           0.785          -0.614       4.239e-05         -0.1931
1611      -6.367e-02       7.813e-01       2.384e-02          -0.254           0.755          -0.605       4.303e-05          0.1029
1612      -6.352e-02       7.778e-01       2.675e-02          -0.633          -0.583           0.510       5.404e-05         -0.3829
1613      -5.510e-02       7.737e-01       2.972e-02          -0.351          -0.693           0.629       4.242e-05         -1.1550
1614      -4.676e-02       7.715e-01       3.110e-02          -0.228          -0.709           0.667       3.981e-05         -1.3084
1615      -3.845e-02       7.701e-01       3.182e-02          -0.127          -0.706           0.696       3.849e-05         -1.3388
1616      -3.017e-02       7.693e-01       3.202e-02          -0.036          -0.692           0.721       3.790e-05         -1.2549
1617      -2.191e-02       7.691e-01       3.179e-02           0.037          -0.672           0.740       3.786e-05         -1.0869
1618      -1.367e-02       7.692e-01       3.125e-02           0.082          -0.654           0.752       3.807e-05         -0.9194
1619      -5.442e-03       7.696e-01       3.048e-02           0.124          -0.635           0.763       3.848e-05         -0.7754
1620       2.776e-03       7.703e-01       2.950e-02           0.160          -0.615           0.772       3.905e-05         -0.6423
1621       1.098e-02       7.712e-01       2.832e-02           0.194          -0.593           0.781       3.979e-05         -0.5177
1622       1.918e-02       7.723e-01       2.695e-02           0.228          -0.569           0.790       4.071e-05         -0.3967
1623       2.737e-02       7.737e-01       2.539e-02           0.259          -0.544           0.798       4.181e-05         -0.2793
1624       3.554e-02       7.753e-01       2.360e-02           0.304          -0.503           0.809       4.352e-05         -0.1624
Strip 63
1625       3.090e-02       7.795e-01       2.675e-02          -0.017           0.778          -0.627       3.888e-05         -0.1124
1626       2.303e-02       7.796e-01       2.709e-02          -0.020           0.777          -0.629       3.889e-05         -0.0898
1627       1.516e-02       7.797e-01       2.740e-02          -0.004           0.785          -0.620       3.892e-05         -0.0640
1628       7.293e-03       7.799e-01       2.764e-02           0.012           0.792          -0.611       3.898e-05         -0.0427
1629      -5.834e-04       7.803e-01       2.780e-02           0.027           0.797          -0.603       3.907e-05         -0.0307
1630      -8.463e-03       7.807e-01       2.789e-02           0.040           0.802          -0.597       3.918e-05         -0.0245
1631      -1.635e-02       7.811e-01       2.793e-02           0.051           0.804          -0.592       3.929e-05         -0.0190
1632      -2.423e-02       7.817e-01       2.793e-02           0.058           0.806          -0.589       3.940e-05         -0.0047
1633      -3.212e-02       7.823e-01       2.785e-02           0.080           0.809          -0.582       3.960e-05          0.0040
1634      -4.001e-02       7.830e-01       2.766e-02           0.104           0.811          -0.576       3.985e-05         -0.0180
1635      -4.791e-02       7.839e-01       2.739e-02           0.112           0.811          -0.575       4.004e-05         -0.0806
1636      -5.581e-02       7.847e-01       2.717e-02           0.086           0.811          -0.579       4.002e-05         -0.2182
1637      -6.366e-02       7.844e-01       2.785e-02          -0.252           0.781          -0.571       4.067e-05          0.0648
1638      -6.352e-02       7.810e-01       3.054e-02          -0.634          -0.603           0.484       5.198e-05         -0.3308
1639      -5.549e-02       7.770e-01       3.327e-02          -0.353          -0.720           0.598       4.166e-05         -1.1020
1640      -4.754e-02       7.748e-01       3.454e-02          -0.230          -0.738           0.634       3.955e-05         -1.2464
1641      -3.962e-02       7.735e-01       3.520e-02          -0.129          -0.738           0.662       3.851e-05         -1.2750
1642      -3.173e-02       7.727e-01       3.537e-02          -0.038          -0.726           0.687       3.806e-05         -1.1967
1643      -2.385e-02       7.725e-01       3.514e-02           0.035          -0.708           0.705       3.803e-05         -1.0381
1644      -1.599e-02       7.726e-01       3.463e-02           0.081          -0.692           0.717       3.818e-05         -0.8806
1645      -8.148e-03       7.730e-01       3.390e-02           0.122          -0.674           0.729       3.848e-05         -0.7459
1646      -3.118e-04       7.737e-01       3.298e-02           0.159          -0.655           0.739       3.888e-05         -0.6214
1647       7.515e-03       7.746e-01       3.188e-02           0.193          -0.633           0.749       3.939e-05         -0.5045
1648       1.533e-02       7.757e-01       3.061e-02           0.227          -0.609           0.760       4.004e-05         -0.3906
1649       2.314e-02       7.770e-01       2.915e-02           0.259          -0.584           0.769       4.081e-05         -0.2815
1650       3.094e-02       7.786e-01       2.748e-02           0.304          -0.542           0.783       4.209e-05         -0.1783
Strip 64
1651       2.630e-02       7.827e-01       3.079e-02          -0.017           0.778          -0.627       3.697e-05         -0.0796
1652       1.882e-02       7.827e-01       3.112e-02          -0.020           0.777          -0.629       3.699e-05         -0.0852
1653       1.134e-02       7.829e-01       3.141e-02          -0.004           0.785          -0.620       3.701e-05         -0.0818
1654       3.847e-03       7.831e-01       3.164e-02           0.012           0.792          -0.611       3.706e-05         -0.0646
1655      -3.645e-03       7.834e-01       3.180e-02           0.027           0.797          -0.603       3.714e-05         -0.0527
1656      -1.114e-02       7.838e-01       3.190e-02           0.040           0.802          -0.597       3.724e-05         -0.0459
1657      -1.864e-02       7.842e-01       3.194e-02           0.051           0.804          -0.592       3.735e-05         -0.0397
1658      -2.614e-02       7.847e-01       3.195e-02           0.058           0.806          -0.589       3.746e-05         -0.0247
1659      -3.364e-02       7.853e-01       3.188e-02           0.080           0.809          -0.582       3.765e-05         -0.0159
1660      -4.115e-02       7.861e-01       3.172e-02           0.104           0.811          -0.576       3.789e-05         -0.0391
1661      -4.866e-02       7.869e-01       3.148e-02           0.112           0.811          -0.575       3.807e-05         -0.1044
1662      -5.617e-02       7.877e-01       3.128e-02           0.086           0.811          -0.579       3.806e-05         -0.2462
1663      -6.364e-02       7.873e-01       3.192e-02          -0.252           0.781          -0.571       3.869e-05          0.0363
1664      -6.351e-02       7.841e-01       3.442e-02          -0.634          -0.603           0.484       4.942e-05         -0.3018
1665      -5.587e-02       7.802e-01       3.696e-02          -0.353          -0.720           0.598       3.959e-05         -1.0606
1666      -4.831e-02       7.782e-01       3.813e-02          -0.230          -0.738           0.635       3.759e-05         -1.1872
1667      -4.078e-02       7.769e-01       3.873e-02          -0.129          -0.738           0.662       3.660e-05         -1.2073
1668      -3.327e-02       7.762e-01       3.889e-02          -0.038          -0.726           0.687       3.618e-05         -1.1284
1669      -2.578e-02       7.759e-01       3.867e-02           0.035          -0.708           0.705       3.617e-05         -0.9763
1670      -1.831e-02       7.761e-01       3.818e-02           0.081          -0.692           0.717       3.633e-05         -0.8286
1671      -1.085e-02       7.764e-01       3.750e-02           0.122          -0.674           0.729       3.663e-05         -0.7046
1672      -3.392e-03       7.771e-01       3.663e-02           0.159          -0.655           0.739       3.703e-05         -0.5910
1673       4.054e-03       7.779e-01       3.560e-02           0.193          -0.634           0.749       3.754e-05         -0.4844
1674       1.149e-02       7.789e-01       3.440e-02           0.227          -0.610           0.759       3.818e-05         -0.3787
1675       1.892e-02       7.802e-01       3.304e-02           0.258          -0.585           0.769       3.893e-05         -0.2726
1676       2.634e-02       7.818e-01       3.147e-02           0.303          -0.543           0.783       4.019e-05         -0.1669
Strip 65
1677       1.941e-02       7.873e-01       3.697e-02          -0.016           0.793          -0.610       6.903e-05         -0.1722
1678       1.250e-02       7.874e-01       3.727e-02          -0.019           0.791          -0.611       6.903e-05         -0.0900
1679       5.596e-03       7.875e-01       3.755e-02          -0.003           0.799          -0.602       6.905e-05         -0.0683
1680      -1.316e-03       7.877e-01       3.776e-02           0.013           0.805          -0.592       6.910e-05         -0.0791
1681      -8.231e-03       7.880e-01       3.791e-02           0.028           0.811          -0.585       6.917e-05         -0.0872
1682      -1.515e-02       7.884e-01       3.801e-02           0.041           0.815          -0.578       6.926e-05         -0.0896
1683      -2.207e-02       7.888e-01       3.805e-02           0.052           0.817          -0.574       6.934e-05         -0.0856
1684      -2.899e-02       7.893e-01       3.806e-02           0.059           0.819          -0.571       6.942e-05         -0.0696
1685      -3.592e-02       7.898e-01       3.801e-02           0.081           0.822          -0.564       6.961e-05         -0.0589
1686      -4.285e-02       7.905e-01       3.786e-02           0.105           0.823          -0.558       6.987e-05         -0.0813
1687      -4.978e-02       7.913e-01       3.765e-02           0.113           0.824          -0.556       6.998e-05         -0.1480
1688      -5.672e-02       7.920e-01       3.747e-02           0.087           0.824          -0.560       6.977e-05         -0.2953
1689      -6.361e-02       7.917e-01       3.806e-02          -0.251           0.794          -0.553       7.099e-05         -0.0243
1690      -6.349e-02       7.886e-01       4.034e-02          -0.635          -0.613           0.470       9.180e-05         -0.2469
1691      -5.644e-02       7.851e-01       4.264e-02          -0.353          -0.733           0.581       7.462e-05         -0.9789
1692      -4.947e-02       7.832e-01       4.370e-02          -0.231          -0.753           0.617       7.139e-05         -1.0788
1693      -4.251e-02       7.819e-01       4.424e-02          -0.130          -0.754           0.644       6.985e-05         -1.0850
1694      -3.558e-02       7.813e-01       4.437e-02          -0.039          -0.744           0.667       6.921e-05         -1.0074
1695      -2.867e-02       7.811e-01       4.417e-02           0.034          -0.727           0.686       6.921e-05         -0.8675
1696      -2.177e-02       7.812e-01       4.372e-02           0.080          -0.712           0.698       6.946e-05         -0.7367
1697      -1.488e-02       7.815e-01       4.310e-02           0.121          -0.695           0.709       6.989e-05         -0.6322
1698      -8.001e-03       7.821e-01       4.230e-02           0.158          -0.676           0.720       7.044e-05         -0.5409
1699      -1.127e-03       7.829e-01       4.136e-02           0.192          -0.655           0.731       7.115e-05         -0.4607
1700       5.739e-03       7.839e-01       4.026e-02           0.226          -0.631           0.742       7.204e-05         -0.3846
1701       1.260e-02       7.851e-01       3.902e-02           0.258          -0.606           0.753       7.309e-05         -0.3100
1702       1.944e-02       7.865e-01       3.759e-02           0.303          -0.564           0.768       7.498e-05         -0.2234
Strip 66
1703       1.023e-02       7.935e-01       4.529e-02          -0.016           0.793          -0.610       6.135e-05         -0.3475
1704       4.089e-03       7.936e-01       4.556e-02          -0.019           0.791          -0.611       6.136e-05         -0.2345
1705      -2.051e-03       7.937e-01       4.580e-02          -0.003           0.799          -0.602       6.137e-05         -0.1919
1706      -8.195e-03       7.939e-01       4.599e-02           0.013           0.805          -0.592       6.141e-05         -0.2101
1707      -1.434e-02       7.941e-01       4.613e-02           0.028           0.811          -0.585       6.147e-05         -0.2173
1708      -2.049e-02       7.945e-01       4.621e-02           0.041           0.815          -0.578       6.155e-05         -0.2102
1709      -2.664e-02       7.949e-01       4.626e-02           0.052           0.817          -0.574       6.162e-05         -0.1938
1710      -3.280e-02       7.953e-01       4.627e-02           0.059           0.819          -0.571       6.169e-05         -0.1649
1711      -3.895e-02       7.958e-01       4.622e-02           0.081           0.822          -0.564       6.186e-05         -0.1431
1712      -4.511e-02       7.964e-01       4.609e-02           0.105           0.823          -0.558       6.209e-05         -0.1556
1713      -5.128e-02       7.971e-01       4.591e-02           0.113           0.824          -0.556       6.220e-05         -0.2122
1714      -5.744e-02       7.977e-01       4.576e-02           0.087           0.824          -0.560       6.201e-05         -0.3595
1715      -6.356e-02       7.974e-01       4.628e-02          -0.251           0.794          -0.553       6.311e-05         -0.0979
1716      -6.346e-02       7.947e-01       4.829e-02          -0.635          -0.613           0.470       8.159e-05         -0.1820
1717      -5.720e-02       7.915e-01       5.032e-02          -0.353          -0.733           0.581       6.631e-05         -0.8281
1718      -5.100e-02       7.898e-01       5.125e-02          -0.231          -0.753           0.617       6.344e-05         -0.8668
1719      -4.482e-02       7.887e-01       5.172e-02          -0.130          -0.754           0.644       6.207e-05         -0.8463
1720      -3.866e-02       7.881e-01       5.184e-02          -0.039          -0.744           0.667       6.151e-05         -0.7690
1721      -3.251e-02       7.880e-01       5.166e-02           0.034          -0.727           0.686       6.152e-05         -0.6515
1722      -2.638e-02       7.881e-01       5.126e-02           0.080          -0.712           0.698       6.175e-05         -0.5510
1723      -2.026e-02       7.884e-01       5.070e-02           0.121          -0.695           0.709       6.214e-05         -0.4796
1724      -1.414e-02       7.889e-01       5.000e-02           0.158          -0.676           0.720       6.264e-05         -0.4276
1725      -8.029e-03       7.896e-01       4.917e-02           0.192          -0.655           0.731       6.328e-05         -0.3953
1726      -1.926e-03       7.905e-01       4.820e-02           0.226          -0.631           0.742       6.409e-05         -0.3815
1727       4.170e-03       7.915e-01       4.710e-02           0.258          -0.606           0.753       6.503e-05         -0.3871
1728       1.026e-02       7.928e-01       4.584e-02           0.303          -0.564           0.768       6.673e-05         -0.3822










